Mini_BESS_added/IEEE13Nodeckt_VLN_Node.Txt

LINE-GROUND and LINE-LINE VOLTAGES BY BUS & NODE

Bus       Node    VLN (kV)   Angle      pu     Base kV    Node-Node   VLL (kV)  Angle      pu

SOURCEBUS 1       66.287 /_   30.0   0.99837   115.000        1-2     114.83 /_   60.0   0.99854
   -      2         66.3 /_  -90.1   0.99856   115.000        2-3     114.82 /_  -60.1   0.99842
   -      3       66.279 /_  149.9   0.99825   115.000        3-1      114.8 /_  179.9   0.99823
650 ..... 1       2.3688 /_    0.6   0.98627     4.160        1-2     4.1136 /_   30.6   0.98885
   -      2       2.3774 /_ -119.6   0.98986     4.160        2-3     4.1082 /_  -89.6   0.98756
   -      3       2.3694 /_  120.6   0.98651     4.160        3-1     4.1028 /_  150.6   0.98625
RG60 .... 1       2.5841 /_    0.7    1.0759     4.160        1-2     4.4128 /_   30.1    1.0608
   -      2       2.5064 /_ -119.5    1.0436     4.160        2-3     4.4059 /_  -88.9    1.0591
   -      3       2.5848 /_  120.7    1.0762     4.160        3-1     4.4757 /_  150.7    1.0759
633 ..... 1       2.4653 /_   -0.8    1.0265     4.160        1-2     4.2522 /_   29.2    1.0222
   -      2       2.4492 /_ -120.6    1.0197     4.160        2-3     4.2372 /_  -90.5    1.0186
   -      3       2.4493 /_  119.6    1.0198     4.160        3-1     4.2651 /_  149.5    1.0253
634 ..... 1      0.27955 /_   -1.3    1.0088     0.480        1-2     0.4827 /_   28.8    1.0056
   -      2      0.27873 /_ -121.0    1.0058     0.480        2-3     0.4822 /_  -90.8    1.0046
   -      3      0.27874 /_  119.3    1.0058     0.480        3-1    0.48484 /_  149.1    1.0101
632 ..... 1       2.4707 /_   -0.7    1.0287     4.160        1-2     4.2602 /_   29.2    1.0241
   -      2       2.4527 /_ -120.6    1.0212     4.160        2-3     4.2449 /_  -90.5    1.0204
   -      3       2.4539 /_  119.6    1.0217     4.160        3-1     4.2728 /_  149.6    1.0271
671 ..... 1       2.3753 /_   -2.4   0.98899     4.160        1-2      4.128 /_   28.8    0.9923
   -      2       2.4298 /_ -120.8    1.0117     4.160        2-3      4.136 /_  -91.7   0.99423
   -      3       2.3367 /_  118.8    0.9729     4.160        3-1     4.1052 /_  148.4   0.98684
680 ..... 1       2.3753 /_   -2.4   0.98899     4.160        1-2      4.128 /_   28.8    0.9923
   -      2       2.4298 /_ -120.8    1.0117     4.160        2-3      4.136 /_  -91.7   0.99423
   -      3       2.3367 /_  118.8    0.9729     4.160        3-1     4.1052 /_  148.4   0.98684
645 ..... 2       2.4362 /_ -120.7    1.0144     4.160        2-3     4.2245 /_  -90.4    1.0155
   -      3       2.4506 /_  119.7    1.0203     4.160
646 ..... 2       2.4333 /_ -120.8    1.0131     4.160        2-3     4.2169 /_  -90.4    1.0137
   -      3        2.447 /_  119.7    1.0188     4.160
684 ..... 1       2.3718 /_   -2.5   0.98751     4.160
   -      3       2.3315 /_  118.7   0.97073     4.160        3-1     4.0974 /_  148.4   0.98494
611 ..... 3       2.3263 /_  118.7   0.96857     4.160
652 ..... 1       2.3614 /_   -2.4   0.98318     4.160
692 ..... 1       2.3753 /_   -2.4   0.98898     4.160        1-2      4.128 /_   28.8    0.9923
   -      2       2.4299 /_ -120.8    1.0117     4.160        2-3      4.136 /_  -91.7   0.99423
   -      3       2.3366 /_  118.8   0.97288     4.160        3-1     4.1052 /_  148.4   0.98684
675 ..... 1       2.3569 /_   -2.4   0.98132     4.160        1-2     4.1091 /_   28.9   0.98776
   -      2       2.4271 /_ -120.8    1.0105     4.160        2-3     4.1209 /_  -91.6   0.99059
   -      3       2.3248 /_  119.0   0.96794     4.160        3-1     4.0819 /_  148.5   0.98123
